/*--------------------------------*- C++ -*----------------------------------*\
| =========                 |                                                 |
| \\      /  F ield         | OpenFOAM: The Open Source CFD Toolbox           |
|  \\    /   O peration     | Version:  2.4.0                                 |
|   \\  /    A nd           | Web:      www.OpenFOAM.org                      |
|    \\/     M anipulation  |                                                 |
\*---------------------------------------------------------------------------*/
FoamFile
{
    version     2.0;
    format      ascii;
    class       polyBoundaryMesh;
    location    "constant/polyMesh";
    object      boundary;
}
// * * * * * * * * * * * * * * * * * * * * * * * * * * * * * * * * * * * * * //

4
(
    rotor
    {
        type            wall;
        inGroups        1(wall);
        nFaces          192;
        startFace       9024;
    }
    stator
    {
        type            wall;
        inGroups        1(wall);
        nFaces          192;
        startFace       9216;
    }
    front
    {
        type            empty;
        inGroups        1(empty);
        nFaces          4608;
        startFace       9408;
    }
    back
    {
        type            empty;
        inGroups        1(empty);
        nFaces          4608;
        startFace       14016;
    }
)

// ************************************************************************* //
