/*--------------------------------*- C++ -*----------------------------------*\
| =========                 |                                                 |
| \\      /  F ield         | OpenFOAM: The Open Source CFD Toolbox           |
|  \\    /   O peration     | Version:  v1606+                                |
|   \\  /    A nd           | Web:      www.OpenFOAM.com                      |
|    \\/     M anipulation  |                                                 |
\*---------------------------------------------------------------------------*/
FoamFile
{
    version     2.0;
    format      binary;
    class       polyBoundaryMesh;
    location    "constant/polyMesh";
    object      boundary;
}
// * * * * * * * * * * * * * * * * * * * * * * * * * * * * * * * * * * * * * //

15
(
    vessel
    {
        type            wall;
        inGroups        
2
(
meshedWalls
wall
)
;
        nFaces          8705;
        startFace       429059;
    }
    gasInlet
    {
        type            patch;
        nFaces          747;
        startFace       437764;
    }
    outlet
    {
        type            patch;
        nFaces          0;
        startFace       438511;
    }
    shaftRotating
    {
        type            wall;
        inGroups        
2
(
meshedWalls
wall
)
;
        nFaces          288;
        startFace       438511;
    }
    shaft
    {
        type            wall;
        inGroups        
2
(
meshedWalls
wall
)
;
        nFaces          0;
        startFace       438799;
    }
    sparger
    {
        type            wall;
        inGroups        
2
(
meshedWalls
wall
)
;
        nFaces          969;
        startFace       438799;
    }
    stirrer
    {
        type            wall;
        inGroups        
2
(
meshedWalls
wall
)
;
        nFaces          390;
        startFace       439768;
    }
    baffles
    {
        type            wall;
        inGroups        
2
(
meshedWalls
wall
)
;
        nFaces          771;
        startFace       440158;
    }
    AMI1
    {
        type            cyclicAMI;
        inGroups        
2
(
cyclicAMI
rotating
)
;
        nFaces          7610;
        startFace       440929;
        matchTolerance  0.0001;
        transform       noOrdering;
        neighbourPatch  AMI2;
    }
    AMI2
    {
        type            cyclicAMI;
        inGroups        
2
(
cyclicAMI
rotating
)
;
        nFaces          8863;
        startFace       448539;
        matchTolerance  0.0001;
        transform       noOrdering;
        neighbourPatch  AMI1;
    }
    procBoundary0to1
    {
        type            processor;
        inGroups        1(processor);
        nFaces          2174;
        startFace       457402;
        matchTolerance  0.0001;
        transform       unknown;
        myProcNo        0;
        neighbProcNo    1;
    }
    procBoundary0to2
    {
        type            processor;
        inGroups        1(processor);
        nFaces          1946;
        startFace       459576;
        matchTolerance  0.0001;
        transform       unknown;
        myProcNo        0;
        neighbProcNo    2;
    }
    procBoundary0to3
    {
        type            processor;
        inGroups        1(processor);
        nFaces          2049;
        startFace       461522;
        matchTolerance  0.0001;
        transform       unknown;
        myProcNo        0;
        neighbProcNo    3;
    }
    procBoundary0to4
    {
        type            processor;
        inGroups        1(processor);
        nFaces          1299;
        startFace       463571;
        matchTolerance  0.0001;
        transform       unknown;
        myProcNo        0;
        neighbProcNo    4;
    }
    procBoundary0to5
    {
        type            processor;
        inGroups        1(processor);
        nFaces          1355;
        startFace       464870;
        matchTolerance  0.0001;
        transform       unknown;
        myProcNo        0;
        neighbProcNo    5;
    }
)

// ************************************************************************* //
